
 OpenBabel09052614263D

 20 20  0  0  1  0  0  0  0  0999 V2000
    0.9544   -0.1416    0.3368 O   0  0  0  0  0  0  0  0  0  0  0  0
    2.3072   -0.1317    0.1346 C   0  0  0  0  0  0  0  0  0  0  0  0
    3.0932   -1.1713   -0.1333 C   0  0  0  0  0  0  0  0  0  0  0  0
    2.7549   -2.4871   -0.2620 O   0  0  0  0  0  0  0  0  0  0  0  0
    4.4717   -0.6472   -0.2047 C   0  0  0  0  0  0  0  0  0  0  0  0
    5.4793   -1.2915   -0.4272 O   0  0  0  0  0  0  0  0  0  0  0  0
    4.4428    0.6963    0.0473 O   0  0  0  0  0  0  0  0  0  0  0  0
    3.0885    1.1280    0.2581 C   0  0  3  0  0  0  0  0  0  0  0  0
    2.7236    2.2185   -0.7724 C   0  0  3  0  0  0  0  0  0  0  0  0
    1.3771    2.6823   -0.6039 O   0  0  0  0  0  0  0  0  0  0  0  0
    3.6837    3.4179   -0.6698 C   0  0  0  0  0  0  0  0  0  0  0  0
    3.3146    4.4679   -1.5634 O   0  0  0  0  0  0  0  0  0  0  0  0
    0.5568   -0.8900   -0.1395 H   0  0  0  0  0  0  0  0  0  0  0  0
    1.8594   -2.6167    0.0863 H   0  0  0  0  0  0  0  0  0  0  0  0
    3.0027    1.5193    1.2787 H   0  0  0  0  0  0  0  0  0  0  0  0
    2.7859    1.8160   -1.7910 H   0  0  0  0  0  0  0  0  0  0  0  0
    1.3180    3.1472    0.2507 H   0  0  0  0  0  0  0  0  0  0  0  0
    4.7119    3.1255   -0.9008 H   0  0  0  0  0  0  0  0  0  0  0  0
    3.6605    3.8433    0.3391 H   0  0  0  0  0  0  0  0  0  0  0  0
    2.9018    4.0669   -2.3490 H   0  0  0  0  0  0  0  0  0  0  0  0
  1  2  1  0  0  0  0
  1 13  1  0  0  0  0
  2  3  2  0  0  0  0
  2  8  1  0  0  0  0
  3  4  1  0  0  0  0
  3  5  1  0  0  0  0
  4 14  1  0  0  0  0
  5  6  2  0  0  0  0
  5  7  1  0  0  0  0
  7  8  1  0  0  0  0
  8  9  1  0  0  0  0
  8 15  1  0  0  0  0
  9 10  1  0  0  0  0
  9 11  1  0  0  0  0
  9 16  1  0  0  0  0
 10 17  1  0  0  0  0
 11 12  1  0  0  0  0
 11 18  1  0  0  0  0
 11 19  1  0  0  0  0
 12 20  1  0  0  0  0
M  END
$$$$
