
 OpenBabel09052614263D

 21 21  0  0  0  0  0  0  0  0999 V2000
    1.0261    0.2475    0.0267 C   0  0  0  0  0  0  0  0  0  0  0  0
    2.4937   -0.0223   -0.1323 C   0  0  0  0  0  0  0  0  0  0  0  0
    2.9533   -0.9217   -0.8203 O   0  0  0  0  0  0  0  0  0  0  0  0
    3.2166    0.8841    0.6549 O   0  0  0  0  0  0  0  0  0  0  0  0
    4.6297    0.8253    0.7260 C   0  0  0  0  0  0  0  0  0  0  0  0
    5.3974    0.5211   -0.4030 C   0  0  0  0  0  0  0  0  0  0  0  0
    6.7877    0.4569   -0.3044 C   0  0  0  0  0  0  0  0  0  0  0  0
    7.4173    0.7256    0.9091 C   0  0  0  0  0  0  0  0  0  0  0  0
    6.6577    1.0689    2.0267 C   0  0  0  0  0  0  0  0  0  0  0  0
    5.2577    1.1344    1.9442 C   0  0  0  0  0  0  0  0  0  0  0  0
    4.5328    1.5158    3.1844 C   0  0  0  0  0  0  0  0  0  0  0  0
    4.9754    1.2983    4.3000 O   0  0  0  0  0  0  0  0  0  0  0  0
    3.3856    2.1955    2.9773 O   0  0  0  0  0  0  0  0  0  0  0  0
    0.4806   -0.2623   -0.7743 H   0  0  0  0  0  0  0  0  0  0  0  0
    0.8260    1.3182   -0.0602 H   0  0  0  0  0  0  0  0  0  0  0  0
    0.6864   -0.1326    0.9916 H   0  0  0  0  0  0  0  0  0  0  0  0
    4.9365    0.3136   -1.3651 H   0  0  0  0  0  0  0  0  0  0  0  0
    7.3795    0.1880   -1.1770 H   0  0  0  0  0  0  0  0  0  0  0  0
    8.5011    0.6678    0.9840 H   0  0  0  0  0  0  0  0  0  0  0  0
    7.1616    1.2860    2.9701 H   0  0  0  0  0  0  0  0  0  0  0  0
    3.1801    2.3459    2.0354 H   0  0  0  0  0  0  0  0  0  0  0  0
  1  2  1  0  0  0  0
  1 14  1  0  0  0  0
  1 15  1  0  0  0  0
  1 16  1  0  0  0  0
  2  3  2  0  0  0  0
  2  4  1  0  0  0  0
  4  5  1  0  0  0  0
  5  6  2  0  0  0  0
  5 10  1  0  0  0  0
  6  7  1  0  0  0  0
  6 17  1  0  0  0  0
  7  8  2  0  0  0  0
  7 18  1  0  0  0  0
  8  9  1  0  0  0  0
  8 19  1  0  0  0  0
  9 10  2  0  0  0  0
  9 20  1  0  0  0  0
 10 11  1  0  0  0  0
 11 12  2  0  0  0  0
 11 13  1  0  0  0  0
 13 21  1  0  0  0  0
M  END
$$$$
