
 OpenBabel09052614263D

 24 25  0  0  0  0  0  0  0  0999 V2000
    1.1154    0.0877    0.0045 C   0  0  0  0  0  0  0  0  0  0  0  0
    2.5558    0.0505    0.0047 N   0  0  0  0  0  0  0  0  0  0  0  0
    3.3938    1.1341    0.0031 C   0  0  0  0  0  0  0  0  0  0  0  0
    4.6608    0.7689    0.0032 N   0  0  0  0  0  0  0  0  0  0  0  0
    4.6211   -0.5927    0.0056 C   0  0  0  0  0  0  0  0  0  0  0  0
    3.3437   -1.0645    0.0068 C   0  0  0  0  0  0  0  0  0  0  0  0
    3.0245   -2.4493    0.0099 C   0  0  0  0  0  0  0  0  0  0  0  0
    1.8693   -2.8640    0.0101 O   0  0  0  0  0  0  0  0  0  0  0  0
    4.1591   -3.2659    0.0129 N   0  0  0  0  0  0  0  0  0  0  0  0
    3.9665   -4.7027    0.0187 C   0  0  0  0  0  0  0  0  0  0  0  0
    5.4963   -2.8162    0.0107 C   0  0  0  0  0  0  0  0  0  0  0  0
    6.4349   -3.6185    0.0125 O   0  0  0  0  0  0  0  0  0  0  0  0
    5.7052   -1.4367    0.0068 N   0  0  0  0  0  0  0  0  0  0  0  0
    7.0509   -0.8929    0.0051 C   0  0  0  0  0  0  0  0  0  0  0  0
    0.7774    1.1271    0.0048 H   0  0  0  0  0  0  0  0  0  0  0  0
    0.7540   -0.4173    0.9037 H   0  0  0  0  0  0  0  0  0  0  0  0
    0.7545   -0.4167   -0.8954 H   0  0  0  0  0  0  0  0  0  0  0  0
    3.0348    2.1558    0.0019 H   0  0  0  0  0  0  0  0  0  0  0  0
    2.9111   -4.9858    0.0203 H   0  0  0  0  0  0  0  0  0  0  0  0
    4.4476   -5.1222    0.9084 H   0  0  0  0  0  0  0  0  0  0  0  0
    4.4471   -5.1296   -0.8677 H   0  0  0  0  0  0  0  0  0  0  0  0
    7.8090   -1.6805    0.0039 H   0  0  0  0  0  0  0  0  0  0  0  0
    7.1888   -0.2772    0.8995 H   0  0  0  0  0  0  0  0  0  0  0  0
    7.1866   -0.2767   -0.8894 H   0  0  0  0  0  0  0  0  0  0  0  0
  1  2  1  0  0  0  0
  1 15  1  0  0  0  0
  1 16  1  0  0  0  0
  1 17  1  0  0  0  0
  2  3  1  0  0  0  0
  2  6  1  0  0  0  0
  3  4  2  0  0  0  0
  3 18  1  0  0  0  0
  4  5  1  0  0  0  0
  5  6  2  0  0  0  0
  5 13  1  0  0  0  0
  6  7  1  0  0  0  0
  7  8  2  0  0  0  0
  7  9  1  0  0  0  0
  9 10  1  0  0  0  0
  9 11  1  0  0  0  0
 10 19  1  0  0  0  0
 10 20  1  0  0  0  0
 10 21  1  0  0  0  0
 11 12  2  0  0  0  0
 11 13  1  0  0  0  0
 13 14  1  0  0  0  0
 14 22  1  0  0  0  0
 14 23  1  0  0  0  0
 14 24  1  0  0  0  0
M  END
$$$$
