
 OpenBabel09052614263D

 21 20  0  0  0  0  0  0  0  0999 V2000
    2.9032    1.3257    3.3477 O   0  0  0  0  0  0  0  0  0  0  0  0
    2.8549    0.3415    2.4277 C   0  0  0  0  0  0  0  0  0  0  0  0
    2.5486   -0.8068    2.7141 O   0  0  0  0  0  0  0  0  0  0  0  0
    3.1897    0.7725    1.0227 C   0  0  0  0  0  0  0  0  0  0  0  0
    4.6921    0.7281    0.7160 C   0  0  0  0  0  0  0  0  0  0  0  0
    5.2301   -0.6057    0.7426 O   0  0  0  0  0  0  0  0  0  0  0  0
    5.0649    1.3872   -0.6213 C   0  0  0  0  0  0  0  0  0  0  0  0
    4.3503    0.7623   -1.7857 C   0  0  0  0  0  0  0  0  0  0  0  0
    3.8746   -0.3622   -1.7714 O   0  0  0  0  0  0  0  0  0  0  0  0
    4.3084    1.5577   -2.8736 O   0  0  0  0  0  0  0  0  0  0  0  0
    5.4386    1.5304    1.7824 C   0  0  0  0  0  0  0  0  0  0  0  0
    5.0220    2.5835    2.2486 O   0  0  0  0  0  0  0  0  0  0  0  0
    6.6152    0.9621    2.1263 O   0  0  0  0  0  0  0  0  0  0  0  0
    3.3023    2.1755    3.0516 H   0  0  0  0  0  0  0  0  0  0  0  0
    2.7794    1.7798    0.8675 H   0  0  0  0  0  0  0  0  0  0  0  0
    2.6248    0.1098    0.3590 H   0  0  0  0  0  0  0  0  0  0  0  0
    4.6200   -1.1759    0.2203 H   0  0  0  0  0  0  0  0  0  0  0  0
    6.1400    1.2784   -0.8136 H   0  0  0  0  0  0  0  0  0  0  0  0
    4.8234    2.4559   -0.5884 H   0  0  0  0  0  0  0  0  0  0  0  0
    4.7542    2.4224   -2.7797 H   0  0  0  0  0  0  0  0  0  0  0  0
    6.6609    0.0693    1.7011 H   0  0  0  0  0  0  0  0  0  0  0  0
  1  2  1  0  0  0  0
  1 14  1  0  0  0  0
  2  3  2  0  0  0  0
  2  4  1  0  0  0  0
  4  5  1  0  0  0  0
  4 15  1  0  0  0  0
  4 16  1  0  0  0  0
  5  6  1  0  0  0  0
  5  7  1  0  0  0  0
  5 11  1  0  0  0  0
  6 17  1  0  0  0  0
  7  8  1  0  0  0  0
  7 18  1  0  0  0  0
  7 19  1  0  0  0  0
  8  9  2  0  0  0  0
  8 10  1  0  0  0  0
 10 20  1  0  0  0  0
 11 12  2  0  0  0  0
 11 13  1  0  0  0  0
 13 21  1  0  0  0  0
M  END
$$$$
