
 OpenBabel09052614263D

 36 35  0  0  0  0  0  0  0  0999 V2000
    2.5887    0.5484    0.9922 O   0  0  0  0  0  0  0  0  0  0  0  0
    2.1616   -0.2152   -0.0379 C   0  0  0  0  0  0  0  0  0  0  0  0
    1.2102   -0.9803    0.0438 O   0  0  0  0  0  0  0  0  0  0  0  0
    3.0534   -0.1079   -1.2649 C   0  0  0  0  0  0  0  0  0  0  0  0
    4.4995   -0.1012   -0.8958 N   0  0  0  0  0  0  0  0  0  0  0  0
    4.9027   -1.2952   -0.1013 C   0  0  0  0  0  0  0  0  0  0  0  0
    4.7509   -2.6257   -0.8273 C   0  0  0  0  0  0  0  0  0  0  0  0
    5.6341   -3.1179   -1.5179 O   0  0  0  0  0  0  0  0  0  0  0  0
    3.5384   -3.2060   -0.6885 O   0  0  0  0  0  0  0  0  0  0  0  0
    5.2729    0.0314   -2.1654 C   0  0  0  0  0  0  0  0  0  0  0  0
    6.8232    0.1024   -2.0736 C   0  0  0  0  0  0  0  0  0  0  0  0
    7.5126    0.2015   -3.3906 N   0  0  0  0  0  0  0  0  0  0  0  0
    7.0775    1.3701   -4.2068 C   0  0  0  0  0  0  0  0  0  0  0  0
    7.3879    2.7350   -3.5905 C   0  0  0  0  0  0  0  0  0  0  0  0
    6.8783    3.1459   -2.5575 O   0  0  0  0  0  0  0  0  0  0  0  0
    8.2940    3.4601   -4.2813 O   0  0  0  0  0  0  0  0  0  0  0  0
    8.9819    0.1955   -3.1766 C   0  0  0  0  0  0  0  0  0  0  0  0
    9.7146    0.2167   -4.5134 C   0  0  0  0  0  0  0  0  0  0  0  0
   10.3950    1.1555   -4.9033 O   0  0  0  0  0  0  0  0  0  0  0  0
    9.4190   -0.8481   -5.2949 O   0  0  0  0  0  0  0  0  0  0  0  0
    3.4334    0.9896    0.7460 H   0  0  0  0  0  0  0  0  0  0  0  0
    2.7874    0.8337   -1.7618 H   0  0  0  0  0  0  0  0  0  0  0  0
    2.8152   -0.9303   -1.9477 H   0  0  0  0  0  0  0  0  0  0  0  0
    4.3561   -1.3476    0.8474 H   0  0  0  0  0  0  0  0  0  0  0  0
    5.9480   -1.1964    0.2163 H   0  0  0  0  0  0  0  0  0  0  0  0
    2.8859   -2.7429   -0.1219 H   0  0  0  0  0  0  0  0  0  0  0  0
    4.9282    0.9639   -2.6261 H   0  0  0  0  0  0  0  0  0  0  0  0
    5.0051   -0.7795   -2.8556 H   0  0  0  0  0  0  0  0  0  0  0  0
    7.1792   -0.8196   -1.5998 H   0  0  0  0  0  0  0  0  0  0  0  0
    7.1153    0.9247   -1.4104 H   0  0  0  0  0  0  0  0  0  0  0  0
    6.0030    1.3316   -4.4118 H   0  0  0  0  0  0  0  0  0  0  0  0
    7.5217    1.3114   -5.2067 H   0  0  0  0  0  0  0  0  0  0  0  0
    8.7225    3.0069   -5.0378 H   0  0  0  0  0  0  0  0  0  0  0  0
    9.2928   -0.7209   -2.6587 H   0  0  0  0  0  0  0  0  0  0  0  0
    9.3192    1.0448   -2.5724 H   0  0  0  0  0  0  0  0  0  0  0  0
    8.7363   -1.4120   -4.8707 H   0  0  0  0  0  0  0  0  0  0  0  0
  1  2  1  0  0  0  0
  1 21  1  0  0  0  0
  2  3  2  0  0  0  0
  2  4  1  0  0  0  0
  4  5  1  0  0  0  0
  4 22  1  0  0  0  0
  4 23  1  0  0  0  0
  5  6  1  0  0  0  0
  5 10  1  0  0  0  0
  6  7  1  0  0  0  0
  6 24  1  0  0  0  0
  6 25  1  0  0  0  0
  7  8  2  0  0  0  0
  7  9  1  0  0  0  0
  9 26  1  0  0  0  0
 10 11  1  0  0  0  0
 10 27  1  0  0  0  0
 10 28  1  0  0  0  0
 11 12  1  0  0  0  0
 11 29  1  0  0  0  0
 11 30  1  0  0  0  0
 12 13  1  0  0  0  0
 12 17  1  0  0  0  0
 13 14  1  0  0  0  0
 13 31  1  0  0  0  0
 13 32  1  0  0  0  0
 14 15  2  0  0  0  0
 14 16  1  0  0  0  0
 16 33  1  0  0  0  0
 17 18  1  0  0  0  0
 17 34  1  0  0  0  0
 17 35  1  0  0  0  0
 18 19  2  0  0  0  0
 18 20  1  0  0  0  0
 20 36  1  0  0  0  0
M  END
$$$$
