
 OpenBabel09052614263D

 50 49  0  0  0  0  0  0  0  0999 V2000
    3.1495    1.3037    4.3861 O   0  0  0  0  0  0  0  0  0  0  0  0
    2.5553    0.1112    4.1186 C   0  0  0  0  0  0  0  0  0  0  0  0
    1.5148   -0.2439    4.6450 O   0  0  0  0  0  0  0  0  0  0  0  0
    3.3098   -0.6817    3.0508 C   0  0  0  0  0  0  0  0  0  0  0  0
    4.7865   -0.3746    3.0433 N   0  0  0  0  0  0  0  0  0  0  0  0
    5.4045   -0.7690    4.3453 C   0  0  0  0  0  0  0  0  0  0  0  0
    5.2644   -2.2457    4.6721 C   0  0  0  0  0  0  0  0  0  0  0  0
    4.3822   -2.7197    5.3712 O   0  0  0  0  0  0  0  0  0  0  0  0
    6.1714   -3.0170    4.0489 O   0  0  0  0  0  0  0  0  0  0  0  0
    5.3834   -1.0816    1.8673 C   0  0  0  0  0  0  0  0  0  0  0  0
    6.9023   -0.8930    1.6170 C   0  0  0  0  0  0  0  0  0  0  0  0
    7.6805   -1.5117    2.6581 O   0  0  0  0  0  0  0  0  0  0  0  0
    9.0934   -1.3176    2.4580 C   0  0  0  0  0  0  0  0  0  0  0  0
    9.8583   -1.7922    3.7015 C   0  0  0  0  0  0  0  0  0  0  0  0
    9.7360   -3.2202    3.8669 O   0  0  0  0  0  0  0  0  0  0  0  0
   10.3578   -3.6381    5.1016 C   0  0  0  0  0  0  0  0  0  0  0  0
   10.1969   -5.1603    5.3625 C   0  0  0  0  0  0  0  0  0  0  0  0
    8.8293   -5.5766    5.7740 N   0  0  0  0  0  0  0  0  0  0  0  0
    7.8330   -5.3628    4.6955 C   0  0  0  0  0  0  0  0  0  0  0  0
    8.1264   -6.0721    3.3755 C   0  0  0  0  0  0  0  0  0  0  0  0
    7.7932   -7.2216    3.1249 O   0  0  0  0  0  0  0  0  0  0  0  0
    8.8512   -5.3255    2.5046 O   0  0  0  0  0  0  0  0  0  0  0  0
    8.7731   -7.0107    6.1884 C   0  0  0  0  0  0  0  0  0  0  0  0
    9.4785   -7.2089    7.5275 C   0  0  0  0  0  0  0  0  0  0  0  0
    9.9855   -8.2534    7.9015 O   0  0  0  0  0  0  0  0  0  0  0  0
    9.4449   -6.0845    8.2918 O   0  0  0  0  0  0  0  0  0  0  0  0
    3.9680    1.3648    3.8465 H   0  0  0  0  0  0  0  0  0  0  0  0
    2.8756   -0.3650    2.0956 H   0  0  0  0  0  0  0  0  0  0  0  0
    3.1181   -1.7515    3.1835 H   0  0  0  0  0  0  0  0  0  0  0  0
    4.9606   -0.2166    5.1808 H   0  0  0  0  0  0  0  0  0  0  0  0
    6.4565   -0.4730    4.3902 H   0  0  0  0  0  0  0  0  0  0  0  0
    6.8406   -2.4820    3.5559 H   0  0  0  0  0  0  0  0  0  0  0  0
    4.8771   -0.7121    0.9662 H   0  0  0  0  0  0  0  0  0  0  0  0
    5.1672   -2.1563    1.9221 H   0  0  0  0  0  0  0  0  0  0  0  0
    7.1423    0.1731    1.5486 H   0  0  0  0  0  0  0  0  0  0  0  0
    7.1620   -1.3768    0.6672 H   0  0  0  0  0  0  0  0  0  0  0  0
    9.2931   -0.2512    2.3018 H   0  0  0  0  0  0  0  0  0  0  0  0
    9.4030   -1.8872    1.5761 H   0  0  0  0  0  0  0  0  0  0  0  0
    9.4466   -1.2957    4.5882 H   0  0  0  0  0  0  0  0  0  0  0  0
   10.9194   -1.5397    3.5996 H   0  0  0  0  0  0  0  0  0  0  0  0
    9.9319   -3.0726    5.9396 H   0  0  0  0  0  0  0  0  0  0  0  0
   11.4277   -3.4087    5.0360 H   0  0  0  0  0  0  0  0  0  0  0  0
   10.8884   -5.3956    6.1791 H   0  0  0  0  0  0  0  0  0  0  0  0
   10.5332   -5.7278    4.4885 H   0  0  0  0  0  0  0  0  0  0  0  0
    7.7872   -4.2997    4.5138 H   0  0  0  0  0  0  0  0  0  0  0  0
    6.8225   -5.6406    5.0191 H   0  0  0  0  0  0  0  0  0  0  0  0
    9.1189   -4.4569    2.8883 H   0  0  0  0  0  0  0  0  0  0  0  0
    9.2131   -7.6703    5.4358 H   0  0  0  0  0  0  0  0  0  0  0  0
    7.7289   -7.3012    6.3654 H   0  0  0  0  0  0  0  0  0  0  0  0
    8.9863   -5.3899    7.7656 H   0  0  0  0  0  0  0  0  0  0  0  0
  1  2  1  0  0  0  0
  1 27  1  0  0  0  0
  2  3  2  0  0  0  0
  2  4  1  0  0  0  0
  4  5  1  0  0  0  0
  4 28  1  0  0  0  0
  4 29  1  0  0  0  0
  5  6  1  0  0  0  0
  5 10  1  0  0  0  0
  6  7  1  0  0  0  0
  6 30  1  0  0  0  0
  6 31  1  0  0  0  0
  7  8  2  0  0  0  0
  7  9  1  0  0  0  0
  9 32  1  0  0  0  0
 10 11  1  0  0  0  0
 10 33  1  0  0  0  0
 10 34  1  0  0  0  0
 11 12  1  0  0  0  0
 11 35  1  0  0  0  0
 11 36  1  0  0  0  0
 12 13  1  0  0  0  0
 13 14  1  0  0  0  0
 13 37  1  0  0  0  0
 13 38  1  0  0  0  0
 14 15  1  0  0  0  0
 14 39  1  0  0  0  0
 14 40  1  0  0  0  0
 15 16  1  0  0  0  0
 16 17  1  0  0  0  0
 16 41  1  0  0  0  0
 16 42  1  0  0  0  0
 17 18  1  0  0  0  0
 17 43  1  0  0  0  0
 17 44  1  0  0  0  0
 18 19  1  0  0  0  0
 18 23  1  0  0  0  0
 19 20  1  0  0  0  0
 19 45  1  0  0  0  0
 19 46  1  0  0  0  0
 20 21  2  0  0  0  0
 20 22  1  0  0  0  0
 22 47  1  0  0  0  0
 23 24  1  0  0  0  0
 23 48  1  0  0  0  0
 23 49  1  0  0  0  0
 24 25  2  0  0  0  0
 24 26  1  0  0  0  0
 26 50  1  0  0  0  0
M  END
$$$$
