
 OpenBabel09052614263D

 10  9  0  0  0  0  0  0  0  0999 V2000
    1.0249   -0.1719    0.0509 N   0  0  0  0  0  0  0  0  0  0  0  0
    2.5010   -0.0118   -0.0000 C   0  0  0  0  0  0  0  0  0  0  0  0
    2.9896    0.5292    1.3413 C   0  0  0  0  0  0  0  0  0  0  0  0
    4.0512    1.1050    1.5195 O   0  0  0  0  0  0  0  0  0  0  0  0
    2.1025    0.2573    2.3339 O   0  0  0  0  0  0  0  0  0  0  0  0
    0.7267   -0.5652   -0.8466 H   0  0  0  0  0  0  0  0  0  0  0  0
    0.6109    0.7670    0.0560 H   0  0  0  0  0  0  0  0  0  0  0  0
    2.7710    0.6821   -0.8005 H   0  0  0  0  0  0  0  0  0  0  0  0
    2.9661   -0.9879   -0.1683 H   0  0  0  0  0  0  0  0  0  0  0  0
    1.3392   -0.2003    1.9016 H   0  0  0  0  0  0  0  0  0  0  0  0
  1  2  1  0  0  0  0
  1  6  1  0  0  0  0
  1  7  1  0  0  0  0
  2  3  1  0  0  0  0
  2  8  1  0  0  0  0
  2  9  1  0  0  0  0
  3  4  2  0  0  0  0
  3  5  1  0  0  0  0
  5 10  1  0  0  0  0
M  END
$$$$
