
 OpenBabel09052614263D

 11 10  0  0  0  0  0  0  0  0999 V2000
    3.2118   -0.4284   -1.2729 O   0  0  0  0  0  0  0  0  0  0  0  0
    2.5412   -0.0836   -0.1579 C   0  0  0  0  0  0  0  0  0  0  0  0
    1.3148   -0.0760   -0.1331 O   0  0  0  0  0  0  0  0  0  0  0  0
    3.3395    0.2927    1.0581 C   0  0  0  0  0  0  0  0  0  0  0  0
    4.8258    0.2525    0.9284 C   0  0  0  0  0  0  0  0  0  0  0  0
    5.4126   -0.0649   -0.0980 O   0  0  0  0  0  0  0  0  0  0  0  0
    5.4801    0.6014    2.0565 O   0  0  0  0  0  0  0  0  0  0  0  0
    4.1980   -0.4058   -1.2001 H   0  0  0  0  0  0  0  0  0  0  0  0
    3.0573   -0.4009    1.8574 H   0  0  0  0  0  0  0  0  0  0  0  0
    3.0573    1.3164    1.3261 H   0  0  0  0  0  0  0  0  0  0  0  0
    4.9079    0.8356    2.8139 H   0  0  0  0  0  0  0  0  0  0  0  0
  1  2  1  0  0  0  0
  1  8  1  0  0  0  0
  2  3  2  0  0  0  0
  2  4  1  0  0  0  0
  4  5  1  0  0  0  0
  4  9  1  0  0  0  0
  4 10  1  0  0  0  0
  5  6  2  0  0  0  0
  5  7  1  0  0  0  0
  7 11  1  0  0  0  0
M  END
$$$$
