
 OpenBabel09052614263D

  8  7  0  0  0  0  0  0  0  0999 V2000
    1.1602    0.0106   -0.0896 O   0  0  0  0  0  0  0  0  0  0  0  0
    2.5003    0.0659   -0.1058 C   0  0  0  0  0  0  0  0  0  0  0  0
    3.1943    1.0232   -0.3983 O   0  0  0  0  0  0  0  0  0  0  0  0
    3.1398   -1.2705    0.3035 C   0  0  0  0  0  0  0  0  0  0  0  0
    2.4458   -2.2278    0.5958 O   0  0  0  0  0  0  0  0  0  0  0  0
    4.4800   -1.2151    0.2876 O   0  0  0  0  0  0  0  0  0  0  0  0
    0.8677   -0.8903    0.1859 H   0  0  0  0  0  0  0  0  0  0  0  0
    4.7724   -0.3141    0.0122 H   0  0  0  0  0  0  0  0  0  0  0  0
  1  2  1  0  0  0  0
  1  7  1  0  0  0  0
  2  3  2  0  0  0  0
  2  4  1  0  0  0  0
  4  5  2  0  0  0  0
  4  6  1  0  0  0  0
  6  8  1  0  0  0  0
M  END
$$$$
