
 OpenBabel09052614263D

 16 16  0  0  0  0  0  0  0  0999 V2000
    1.7013   -1.1833   -0.1068 O   0  0  0  0  0  0  0  0  0  0  0  0
    2.3645   -0.0155    0.0354 C   0  0  0  0  0  0  0  0  0  0  0  0
    2.2595    0.9059   -0.7579 O   0  0  0  0  0  0  0  0  0  0  0  0
    3.1741    0.0842    1.2806 C   0  0  0  0  0  0  0  0  0  0  0  0
    3.4481    1.3701    1.7717 C   0  0  0  0  0  0  0  0  0  0  0  0
    4.2004    1.5354    2.9351 C   0  0  0  0  0  0  0  0  0  0  0  0
    4.6972    0.4204    3.6052 C   0  0  0  0  0  0  0  0  0  0  0  0
    4.4424   -0.8638    3.1229 C   0  0  0  0  0  0  0  0  0  0  0  0
    3.6770   -1.0280    1.9655 C   0  0  0  0  0  0  0  0  0  0  0  0
    3.4067   -2.2929    1.5124 O   0  0  0  0  0  0  0  0  0  0  0  0
    1.9750   -1.8451    0.5652 H   0  0  0  0  0  0  0  0  0  0  0  0
    3.0644    2.2462    1.2496 H   0  0  0  0  0  0  0  0  0  0  0  0
    4.3950    2.5360    3.3163 H   0  0  0  0  0  0  0  0  0  0  0  0
    5.2861    0.5535    4.5137 H   0  0  0  0  0  0  0  0  0  0  0  0
    4.8352   -1.7188    3.6671 H   0  0  0  0  0  0  0  0  0  0  0  0
    4.0158   -2.9144    1.9527 H   0  0  0  0  0  0  0  0  0  0  0  0
  1  2  1  0  0  0  0
  1 11  1  0  0  0  0
  2  3  2  0  0  0  0
  2  4  1  0  0  0  0
  4  5  2  0  0  0  0
  4  9  1  0  0  0  0
  5  6  1  0  0  0  0
  5 12  1  0  0  0  0
  6  7  2  0  0  0  0
  6 13  1  0  0  0  0
  7  8  1  0  0  0  0
  7 14  1  0  0  0  0
  8  9  2  0  0  0  0
  8 15  1  0  0  0  0
  9 10  1  0  0  0  0
 10 16  1  0  0  0  0
M  END
$$$$
