
 OpenBabel09052614263D

 16 15  0  0  1  0  0  0  0  0999 V2000
    1.1086    0.3072    0.2607 O   0  0  0  0  0  0  0  0  0  0  0  0
    2.3496   -0.1251   -0.0762 C   0  0  0  0  0  0  0  0  0  0  0  0
    2.7898   -1.2193    0.2358 O   0  0  0  0  0  0  0  0  0  0  0  0
    3.0889    0.9034   -0.9275 C   0  0  3  0  0  0  0  0  0  0  0  0
    2.6174    2.2340   -0.6573 O   0  0  0  0  0  0  0  0  0  0  0  0
    4.6057    0.7761   -0.7644 C   0  0  3  0  0  0  0  0  0  0  0  0
    5.2933    1.6181   -1.7043 O   0  0  0  0  0  0  0  0  0  0  0  0
    5.0549    1.1974    0.6284 C   0  0  0  0  0  0  0  0  0  0  0  0
    4.2938    1.5467    1.5197 O   0  0  0  0  0  0  0  0  0  0  0  0
    6.4022    1.2409    0.7419 O   0  0  0  0  0  0  0  0  0  0  0  0
    0.9574    1.2137   -0.0896 H   0  0  0  0  0  0  0  0  0  0  0  0
    2.8232    0.6979   -1.9712 H   0  0  0  0  0  0  0  0  0  0  0  0
    2.8768    2.4437    0.2701 H   0  0  0  0  0  0  0  0  0  0  0  0
    4.9324   -0.2524   -0.9341 H   0  0  0  0  0  0  0  0  0  0  0  0
    4.8397    2.4858   -1.6917 H   0  0  0  0  0  0  0  0  0  0  0  0
    6.8308    1.0555   -0.1220 H   0  0  0  0  0  0  0  0  0  0  0  0
  1  2  1  0  0  0  0
  1 11  1  0  0  0  0
  2  3  2  0  0  0  0
  2  4  1  0  0  0  0
  4  5  1  0  0  0  0
  4  6  1  0  0  0  0
  4 12  1  0  0  0  0
  5 13  1  0  0  0  0
  6  7  1  0  0  0  0
  6  8  1  0  0  0  0
  6 14  1  0  0  0  0
  7 15  1  0  0  0  0
  8  9  2  0  0  0  0
  8 10  1  0  0  0  0
 10 16  1  0  0  0  0
M  END
$$$$
